%nprocshared=32
%mem=100gb
%chk=tertbutanolF.chk
# opt b3lyp/6-311++g(d,p)

tertbutanol_opt

0 1
C -0.461300 1.467700 -0.000000
C 0.000000 0.000000 0.000000
C -0.461300 -0.733800 1.271000
C -0.461300 -0.733800 -1.271000
O 1.380000 0.000000 0.000000
H -0.092200 1.998100 -0.878600
H -1.549400 1.544300 0.000000
H -0.092200 1.998100 0.878600
H -0.092200 -1.759900 1.291100
H -0.092200 -0.238200 2.169700
H -1.549400 -0.772200 1.337400
H -0.092200 -1.759900 -1.291100
H -1.549400 -0.772200 -1.337400
H -0.092200 -0.238200 -2.169700
H 1.802600 -0.906300 -0.000000

